Version 4
SHEET 1 880 680
WIRE -368 -432 -464 -432
WIRE -208 -432 -272 -432
WIRE -368 -368 -400 -368
WIRE -208 -368 -272 -368
WIRE -400 -352 -400 -368
WIRE -400 -352 -464 -352
WIRE -400 -288 -464 -288
WIRE -192 -288 -256 -288
WIRE -464 -256 -464 -288
WIRE -256 -256 -256 -288
WIRE -464 -160 -464 -176
WIRE -256 -160 -256 -176
WIRE 480 -112 144 -112
WIRE 544 -112 480 -112
WIRE 480 -80 480 -112
WIRE 288 -64 -16 -64
WIRE 384 -64 288 -64
WIRE 288 -16 288 -64
WIRE 384 -16 384 -64
WIRE 144 32 144 -112
WIRE -16 80 -16 -64
WIRE 112 80 -16 80
WIRE 288 112 288 48
WIRE 288 112 256 112
WIRE 384 112 384 64
WIRE 384 112 288 112
WIRE 432 112 384 112
WIRE 560 112 512 112
WIRE 624 112 560 112
WIRE -464 144 -464 112
WIRE -464 144 -480 144
WIRE -432 144 -464 144
WIRE -304 144 -352 144
WIRE -176 144 -304 144
WIRE 112 144 -176 144
WIRE -304 192 -304 144
WIRE -176 192 -176 144
WIRE -16 192 -16 80
WIRE 560 192 560 112
WIRE -304 320 -304 256
WIRE -176 320 -176 272
WIRE -176 320 -304 320
WIRE -16 320 -16 272
WIRE -16 320 -176 320
WIRE 144 320 144 192
WIRE 144 320 -16 320
WIRE 144 336 144 320
WIRE 560 336 560 256
FLAG 144 336 0
FLAG 480 -16 0
FLAG 560 336 0
FLAG 544 -112 vcc
FLAG -480 144 in
FLAG 624 112 out
FLAG -464 -160 0
FLAG -400 -288 vcc
FLAG -208 -368 in
FLAG -256 -160 0
FLAG -192 -288 parasite
FLAG -464 48 parasite
FLAG -208 -432 vcc
SYMBOL OpAmps\\LTC2050HV 144 112 R0
SYMATTR InstName U1
SYMBOL res -336 128 R90
WINDOW 0 0 56 VBottom 2
WINDOW 3 32 56 VTop 2
SYMATTR InstName R1
SYMATTR Value 10k
SYMBOL cap -320 192 R0
SYMATTR InstName C1
SYMATTR Value 100n
SYMBOL res -192 176 R0
SYMATTR InstName R2
SYMATTR Value 100k
SYMBOL res -32 176 R0
SYMATTR InstName R3
SYMATTR Value 1k
SYMBOL cap 272 -16 R0
SYMATTR InstName C2
SYMATTR Value 1µ
SYMBOL cap 464 -80 R0
SYMATTR InstName C3
SYMATTR Value 100n
SYMBOL voltage -464 -272 R0
WINDOW 123 0 0 Left 0
WINDOW 39 0 0 Left 0
SYMATTR InstName V1
SYMATTR Value 3.3
SYMBOL res 368 -32 R0
SYMATTR InstName R4
SYMATTR Value 100k
SYMBOL res 528 96 R90
WINDOW 0 0 56 VBottom 2
WINDOW 3 32 56 VTop 2
SYMATTR InstName R5
SYMATTR Value 1k
SYMBOL cap 544 192 R0
SYMATTR InstName C4
SYMATTR Value 100n
SYMBOL voltage -256 -272 R0
WINDOW 123 0 0 Left 0
WINDOW 39 0 0 Left 0
SYMATTR InstName V2
SYMATTR Value SINE(0 325 50)
SYMBOL cap -480 48 R0
SYMATTR InstName C5
SYMATTR Value 1p
SYMBOL aime_gaz_sensor -320 -400 R0
SYMATTR InstName X1
SYMBOL voltage -464 -448 R0
WINDOW 123 0 0 Left 0
WINDOW 39 0 0 Left 0
WINDOW 3 -338 54 Left 2
SYMATTR InstName V3
SYMATTR Value PULSE(0 1 0.2 0.1 0.1 20)
TEXT 496 -232 Left 2 !.tran 4
TEXT 360 -200 Left 2 !;ac oct 200 0.1 0.1G
